packages/dc_solver_pkg/tests/files/test_ucte_powsybl_example.uct
##C 2007.05.01
modified from https://github.com/powsybl/powsybl-core/blob/main/ucte/ucte-converter/src/test/resources/expectedExport5.uct
##N
##ZBE
B_SU1_11 Belgium Nod1 0 0        50.0000 0.00000 0.00000 0.00000                                                               W
B_SU1_21 Belgium Nod2 0 2 225.00 0.00000 0.00000 -100.000 0.00000                                                               W
B_SU2_11 Belgium Nod2 0 2 400.00 0.00000 0.00000 -150.000 0.00000                                                               W
##ZFR
D8SU1_11 France Node1 1 0        150.0000 0.00000 0.00000 0.00000                                                               L
D8SU1_12 France Node3 1 0        0.00000 0.00000 0.00000 0.00000                                                               L
D8SU1_21 France Node2 0 0        0.00000 0.00000 0.00000 0.00000                                                               L
D2SU1_31 France Node4 0 0 225.00 25.0000 10.0000 -5.00000 2.00000                                                               L
D2SU2_31 France Node4 0 0 225.00 25.0000 10.0000 -5.00000 2.00000                                                               L
D7SU2_11 France ONode 0 3 400.00 0.00000 0.00000 -50.0000 0.00000                                                               F
##ZHR
HCCCCC1  namename11   0 0        123.000 18.4000 0.00000 0.00000                                                               L
HDDDDD2  namename11   0 0        0.00000 0.00000 0.00000 0.00000                                                               L
##ZME
0AAAAA2  NAME12121212 0 0        0.00000 0.00000 0.00000 0.00000                                                               L
0BBBBB5  NAME12121212 0 2 115.00 0.00000 0.00000 -33.200 10.0000 0.00000 -300.00 10.0000 -40.000                               F
##ZPL
ZABCD221              0 0        0.00000 0.00000 0.00000 0.00000                                                               L
ZEFGH221              0 0        0.00000 0.00000 0.00000 0.00000                                                               L
ZIJK1412              0 0        0.00000 0.00000 0.00000 0.00000                                                               L
ZLMNO221              0 0        0.00000 0.00000 0.00000 0.00000                                                               L
##ZXX
XB__F_11 FR-BE Xnode1 1 0        0.00000 0.00000 0.00000 0.00000                                                               L
XB__F_21 FR-BE Xnode2 1 0        0.00000 0.00000 0.00000 0.00000                                                               L
XG__F_21 France Xnode 1 0        50.0000 0.00000 0.00000 0.00000                                                               L
##L
D8SU1_12 D8SU1_11 1 2 0.0000 0.0000 0.000000   5000 Test Coupler
D8SU1_12 D8SU1_11 2 0 0.0000 0.0000 0.050000   5000 Test C. Line
D8SU1_12 D7SU2_11 1 0 0.5500 1.6800 13.25000   100  Test Line
D8SU1_12 D7SU2_11 2 0 0.6666 1.8888 13.25000   100  Test Line 2
D2SU1_31 D2SU1_31 2 0 0.6666 1.8888 13.25000   100  Test Line 3
B_SU2_11 B_SU1_11 1 0 0.0666 0.0088 0.050000   100  Test Line 4
XB__F_11 B_SU1_11 1 1 0.5500 1.6800 13.25000   5000 Test TL 1/2
XB__F_11 D8SU1_11 1 1 0.5500 1.6800 13.25000   5000 Test TL 1/1
XB__F_21 B_SU1_21 1 1 0.5500 1.6800 13.25000   5000 Test TL 2/2
XB__F_21 D8SU1_21 1 1 0.5500 1.6800 13.25000   5000 Test TL 2/1
XG__F_21 D8SU1_21 1 1 0.5500 1.6800 13.25000   5000 Test DL
##T
0BBBBB5  0AAAAA2  1 0 110.0 220.0 125.0 0.2500 10.686 0.000000 0.0000    656
B_SU1_11 B_SU1_21 1 0 400.0 225.0 5000. 0.5500 1.6800 13.25000 0.0000   5000 Test 2WT 2
D8SU1_11 D8SU1_21 1 0 400.0 225.0 5000. 0.5500 1.6800 13.25000 0.0000   5000 Test 2WT 1
HDDDDD2  HCCCCC1  1 0 231.0 400.0 400.0 0.1880 15.100 -9.76000 0.0000   1000
ZABCD221 ZEFGH221 1 0 220.0 220.0 330.0 0.0484 0.4840 0.000000 0.0000    866
ZIJK1412 ZLMNO221 1 0 400.0 231.0 400.0 1.1360 53.504 -27.2125 0.0000    693
##R
0BBBBB5  0AAAAA2  1 -2.00  7  -3
HDDDDD2  HCCCCC1  1 -0.55 20  -8       0.990 90.00 20  19       ASYM
ZABCD221 ZEFGH221 1                    -1.57 90.00  8  -1       SYMM
ZIJK1412 ZLMNO221 1 1.250 11   1 220.0
##TT
##E
